LAMMPS (31 May 2019)
#FePt_L10_100-A1_001
units metal
dimension 3
boundary p p p

atom_style atomic
pair_style meam/c
read_data FePt_L10_100-A1_001_cell_1.in group interface_1_atoms
  triclinic box = (-2 -2 -2) to (180.325 196.575 34.3958) with tilt (0 0 0)
  reading atoms ...
  90846 atoms
change_box all x final 0.0 178.32512549999998 y final 8.326672684688674e-17 195.62436200000002 z final 0.0 67.306484 units box
  triclinic box = (0 -2 -2) to (178.325 196.575 34.3958) with tilt (0 0 0)
  triclinic box = (0 8.32667e-17 -2) to (178.325 195.624 34.3958) with tilt (0 0 0)
  triclinic box = (0 8.32667e-17 0) to (178.325 195.624 67.3065) with tilt (0 0 0)
read_data FePt_L10_100-A1_001_cell_2.in group interface_2_atoms add append
  triclinic box = (-2 -1.90564 0) to (180.295 197.624 69.3065) with tilt (0 0 0)
  reading atoms ...
  87138 atoms

#Pair_Coeff if MEAM
pair_coeff * * library.meam Fe(L10) Pt(L10) FePt.meam Fe(L10) Pt(L10)
Reading potential file library.meam with DATE: 2012-06-29
Reading potential file FePt.meam with DATE: 2007-06-11

#Frozen Region
region frozen_region block $(xlo+8) $(xhi-8) $(ylo+8) $(yhi-8) $(zlo+8) $(zhi-8) side out
region frozen_region block 6 $(xhi-8) $(ylo+8) $(yhi-8) $(zlo+8) $(zhi-8) side out
region frozen_region block 6 172.29499999999998749 $(ylo+8) $(yhi-8) $(zlo+8) $(zhi-8) side out
region frozen_region block 6 172.29499999999998749 6.094362000000000279 $(yhi-8) $(zlo+8) $(zhi-8) side out
region frozen_region block 6 172.29499999999998749 6.094362000000000279 189.62436200000001918 $(zlo+8) $(zhi-8) side out
region frozen_region block 6 172.29499999999998749 6.094362000000000279 189.62436200000001918 8 $(zhi-8) side out
region frozen_region block 6 172.29499999999998749 6.094362000000000279 189.62436200000001918 8 61.306483999999997536 side out
group frozen_atoms region frozen_region
64634 atoms in group frozen_atoms
velocity frozen_atoms set 0 0 0
fix freeze frozen_atoms setforce 0 0 0

#Interface Region
region interface_region block $(xlo+8) $(xhi-8) $(ylo+8) $(yhi-8) $(zlo+8) $(zhi-8)
region interface_region block 6 $(xhi-8) $(ylo+8) $(yhi-8) $(zlo+8) $(zhi-8)
region interface_region block 6 172.29499999999998749 $(ylo+8) $(yhi-8) $(zlo+8) $(zhi-8)
region interface_region block 6 172.29499999999998749 6.094362000000000279 $(yhi-8) $(zlo+8) $(zhi-8)
region interface_region block 6 172.29499999999998749 6.094362000000000279 189.62436200000001918 $(zlo+8) $(zhi-8)
region interface_region block 6 172.29499999999998749 6.094362000000000279 189.62436200000001918 8 $(zhi-8)
region interface_region block 6 172.29499999999998749 6.094362000000000279 189.62436200000001918 8 61.306483999999997536
group interface_atoms region interface_region
113350 atoms in group interface_atoms

#Interface Region Setup
group unfrozen_interface_1_atoms intersect interface_atoms interface_1_atoms
56160 atoms in group unfrozen_interface_1_atoms
group unfrozen_interface_2_atoms intersect interface_atoms interface_2_atoms
57190 atoms in group unfrozen_interface_2_atoms

#Full Interface Computes
compute per_atom all pe/atom
compute interface_energy interface_atoms reduce sum c_per_atom
variable number_of_interface_atoms equal count(interface_atoms)
variable interface_energy_per_atom equal c_interface_energy/v_number_of_interface_atoms

#Interface 1 Computes
compute interface_1_energy unfrozen_interface_1_atoms reduce sum c_per_atom
variable number_of_unfrozen_interface_1_atoms equal count(unfrozen_interface_1_atoms)
variable interface_1_energy_per_atom equal c_interface_1_energy/v_number_of_unfrozen_interface_1_atoms

#Interface 2 Computes
compute interface_2_energy unfrozen_interface_2_atoms reduce sum c_per_atom
variable number_of_unfrozen_interface_2_atoms equal count(unfrozen_interface_2_atoms)
variable interface_2_energy_per_atom equal c_interface_2_energy/v_number_of_unfrozen_interface_2_atoms

#Atom Type Computes
group atom_type_1 type 1
89182 atoms in group atom_type_1
group atom_type_2 type 2
88802 atoms in group atom_type_2

#Atom interface_1 Type 1 Computes
group type_1_interface_1_atoms intersect atom_type_1 unfrozen_interface_1_atoms
28080 atoms in group type_1_interface_1_atoms
compute type_1_interface_1_energy type_1_interface_1_atoms reduce sum c_per_atom
variable number_of_type_1_interface_1_atoms equal count(type_1_interface_1_atoms)
variable interface_1_type_1_energy_per_atom equal c_type_1_interface_1_energy/v_number_of_type_1_interface_1_atoms

#Atom interface_1 Type 2 Computes
group type_2_interface_1_atoms intersect atom_type_2 unfrozen_interface_1_atoms
28080 atoms in group type_2_interface_1_atoms
compute type_2_interface_1_energy type_2_interface_1_atoms reduce sum c_per_atom
variable number_of_type_2_interface_1_atoms equal count(type_2_interface_1_atoms)
variable interface_1_type_2_energy_per_atom equal c_type_2_interface_1_energy/v_number_of_type_2_interface_1_atoms

#Atom interface_2 Type 1 Computes
group type_1_interface_2_atoms intersect atom_type_1 unfrozen_interface_2_atoms
28662 atoms in group type_1_interface_2_atoms
compute type_1_interface_2_energy type_1_interface_2_atoms reduce sum c_per_atom
variable number_of_type_1_interface_2_atoms equal count(type_1_interface_2_atoms)
variable interface_2_type_1_energy_per_atom equal c_type_1_interface_2_energy/v_number_of_type_1_interface_2_atoms

#Atom interface_2 Type 2 Computes
group type_2_interface_2_atoms intersect atom_type_2 unfrozen_interface_2_atoms
28528 atoms in group type_2_interface_2_atoms
compute type_2_interface_2_energy type_2_interface_2_atoms reduce sum c_per_atom
variable number_of_type_2_interface_2_atoms equal count(type_2_interface_2_atoms)
variable interface_2_type_2_energy_per_atom equal c_type_2_interface_2_energy/v_number_of_type_2_interface_2_atoms

#Stress computations
compute stress interface_atoms stress/atom NULL
variable total_stress atom abs(c_stress[1])+abs(c_stress[2])+abs(c_stress[3])+abs(c_stress[4])+abs(c_stress[5])+abs(c_stress[6])
variable average_stress atom v_total_stress/6

#Thermo output style
thermo_style custom step temp epair emol etotal press c_interface_energy v_number_of_interface_atoms v_interface_energy_per_atom c_interface_1_energy v_number_of_unfrozen_interface_1_atoms v_interface_1_energy_per_atom c_interface_2_energy v_number_of_unfrozen_interface_2_atoms v_interface_2_energy_per_atom c_type_1_interface_1_energy v_number_of_type_1_interface_1_atoms v_interface_1_type_1_energy_per_atom c_type_1_interface_2_energy v_number_of_type_1_interface_2_atoms v_interface_2_type_1_energy_per_atom c_type_2_interface_1_energy v_number_of_type_2_interface_1_atoms v_interface_1_type_2_energy_per_atom c_type_2_interface_2_energy v_number_of_type_2_interface_2_atoms v_interface_2_type_2_energy_per_atom

thermo 1000

#Dump custom setup
dump MiDump all custom 100 interface_nvt.xyz id type xs ys zs fx fy fz c_stress[1] c_stress[2] c_stress[3] c_stress[4] c_stress[5] c_stress[6] v_average_stress v_total_stress
fix run all nvt temp 1.0 1.0 $(100.0*dt)
fix run all nvt temp 1.0 1.0 0.10000000000000000555
run 8000
  update every 1 steps, delay 10 steps, check yes
Step Temp E_pair E_mol TotEng Press c_interface_energy v_number_of_interface_atoms v_interface_energy_per_atom c_interface_1_energy v_number_of_unfrozen_interface_1_atoms v_interface_1_energy_per_atom c_interface_2_energy v_number_of_unfrozen_interface_2_atoms v_interface_2_energy_per_atom c_type_1_interface_1_energy v_number_of_type_1_interface_1_atoms v_interface_1_type_1_energy_per_atom c_type_1_interface_2_energy v_number_of_type_1_interface_2_atoms v_interface_2_type_1_energy_per_atom c_type_2_interface_1_energy v_number_of_type_2_interface_1_atoms v_interface_1_type_2_energy_per_atom c_type_2_interface_2_energy v_number_of_type_2_interface_2_atoms v_interface_2_type_2_energy_per_atom
0            0   -960605.33            0   -960605.33    50229.153   -619647.19       113350   -5.4666713    -306481.1        56160   -5.4572846   -313166.09        57190    -5.475889    -113877.9        28080   -4.0554807   -126339.49        28662   -4.4079092   -192603.21        28080   -6.8590886    -186826.6        28528   -6.5488852
Averages over the last 5 of 9 rows, steps 4000 to 8000:
Temp E_pair E_mol TotEng Press c_interface_energy v_number_of_interface_atoms v_interface_energy_per_atom c_interface_1_energy v_number_of_unfrozen_interface_1_atoms v_interface_1_energy_per_atom c_interface_2_energy v_number_of_unfrozen_interface_2_atoms v_interface_2_energy_per_atom c_type_1_interface_1_energy v_number_of_type_1_interface_1_atoms v_interface_1_type_1_energy_per_atom c_type_1_interface_2_energy v_number_of_type_1_interface_2_atoms v_interface_2_type_1_energy_per_atom c_type_2_interface_1_energy v_number_of_type_2_interface_1_atoms v_interface_1_type_2_energy_per_atom c_type_2_interface_2_energy v_number_of_type_2_interface_2_atoms v_interface_2_type_2_energy_per_atom
1.0035 -964244 0 -964221 38990.5 -623252 113350 -5.49848 -308245 56160 -5.4887 -315007 57190 -5.50808 -115554 28080 -4.11516 -127618 28662 -4.45251 -192692 28080 -6.86224 -187389 28528 -6.5686
Loop time of 1922.17 on 30 procs for 8000 steps with 177984 atoms

thermo 10
run 1000
Step Temp E_pair E_mol TotEng Press c_interface_energy v_number_of_interface_atoms v_interface_energy_per_atom c_interface_1_energy v_number_of_unfrozen_interface_1_atoms v_interface_1_energy_per_atom c_interface_2_energy v_number_of_unfrozen_interface_2_atoms v_interface_2_energy_per_atom c_type_1_interface_1_energy v_number_of_type_1_interface_1_atoms v_interface_1_type_1_energy_per_atom c_type_1_interface_2_energy v_number_of_type_1_interface_2_atoms v_interface_2_type_1_energy_per_atom c_type_2_interface_1_energy v_number_of_type_2_interface_1_atoms v_interface_1_type_2_energy_per_atom c_type_2_interface_2_energy v_number_of_type_2_interface_2_atoms v_interface_2_type_2_energy_per_atom
8000    1.0396122   -964240.58            0   -964216.66    38999.686   -623249.56       113350   -5.4984522   -308245.14        56160   -5.4886955   -315004.42        57190   -5.5080333   -115556.58        28080   -4.1152628   -127614.86        28662   -4.4524059   -192688.56        28080   -6.8621282   -187389.57        28528   -6.5686191
Averages over the last 51 of 101 rows, steps 8500 to 9000:
Temp E_pair E_mol TotEng Press c_interface_energy v_number_of_interface_atoms v_interface_energy_per_atom c_interface_1_energy v_number_of_unfrozen_interface_1_atoms v_interface_1_energy_per_atom c_interface_2_energy v_number_of_unfrozen_interface_2_atoms v_interface_2_energy_per_atom c_type_1_interface_1_energy v_number_of_type_1_interface_1_atoms v_interface_1_type_1_energy_per_atom c_type_1_interface_2_energy v_number_of_type_1_interface_2_atoms v_interface_2_type_1_energy_per_atom c_type_2_interface_1_energy v_number_of_type_2_interface_1_atoms v_interface_1_type_2_energy_per_atom c_type_2_interface_2_energy v_number_of_type_2_interface_2_atoms v_interface_2_type_2_energy_per_atom
0.985362 -964249 0 -964226 38994.8 -623257 113350 -5.49852 -308250 56160 -5.48877 -315007 57190 -5.50809 -115547 28080 -4.11493 -127623 28662 -4.45268 -192702 28080 -6.86261 -187385 28528 -6.56845
Loop time of 241.423 on 30 procs for 1000 steps with 177984 atoms

thermo 1000
dump_modify MiDump every 1000
run 42000
Step Temp E_pair E_mol TotEng Press c_interface_energy v_number_of_interface_atoms v_interface_energy_per_atom c_interface_1_energy v_number_of_unfrozen_interface_1_atoms v_interface_1_energy_per_atom c_interface_2_energy v_number_of_unfrozen_interface_2_atoms v_interface_2_energy_per_atom c_type_1_interface_1_energy v_number_of_type_1_interface_1_atoms v_interface_1_type_1_energy_per_atom c_type_1_interface_2_energy v_number_of_type_1_interface_2_atoms v_interface_2_type_1_energy_per_atom c_type_2_interface_1_energy v_number_of_type_2_interface_1_atoms v_interface_1_type_2_energy_per_atom c_type_2_interface_2_energy v_number_of_type_2_interface_2_atoms v_interface_2_type_2_energy_per_atom
9000   0.99598533   -964245.38            0   -964222.46    38991.104   -623252.91       113350   -5.4984818   -308246.41        56160   -5.4887181    -315006.5        57190   -5.5080696   -115548.28        28080   -4.1149672   -127621.32        28662   -4.4526314   -192698.13        28080   -6.8624691   -187385.18        28528   -6.5684654
Averages over the last 22 of 43 rows, steps 30000 to 51000:
Temp E_pair E_mol TotEng Press c_interface_energy v_number_of_interface_atoms v_interface_energy_per_atom c_interface_1_energy v_number_of_unfrozen_interface_1_atoms v_interface_1_energy_per_atom c_interface_2_energy v_number_of_unfrozen_interface_2_atoms v_interface_2_energy_per_atom c_type_1_interface_1_energy v_number_of_type_1_interface_1_atoms v_interface_1_type_1_energy_per_atom c_type_1_interface_2_energy v_number_of_type_1_interface_2_atoms v_interface_2_type_1_energy_per_atom c_type_2_interface_1_energy v_number_of_type_2_interface_1_atoms v_interface_1_type_2_energy_per_atom c_type_2_interface_2_energy v_number_of_type_2_interface_2_atoms v_interface_2_type_2_energy_per_atom
0.999402 -964250 0 -964227 38990.3 -623258 113350 -5.49853 -308249 56160 -5.48876 -315009 57190 -5.50812 -115556 28080 -4.11523 -127618 28662 -4.4525 -192693 28080 -6.86228 -187392 28528 -6.56869
Loop time of 10083.7 on 30 procs for 42000 steps with 177984 atoms

thermo 100
run 5000
Step Temp E_pair E_mol TotEng Press c_interface_energy v_number_of_interface_atoms v_interface_energy_per_atom c_interface_1_energy v_number_of_unfrozen_interface_1_atoms v_interface_1_energy_per_atom c_interface_2_energy v_number_of_unfrozen_interface_2_atoms v_interface_2_energy_per_atom c_type_1_interface_1_energy v_number_of_type_1_interface_1_atoms v_interface_1_type_1_energy_per_atom c_type_1_interface_2_energy v_number_of_type_1_interface_2_atoms v_interface_2_type_1_energy_per_atom c_type_2_interface_1_energy v_number_of_type_2_interface_1_atoms v_interface_1_type_2_energy_per_atom c_type_2_interface_2_energy v_number_of_type_2_interface_2_atoms v_interface_2_type_2_energy_per_atom
51000    1.0227511   -964245.92            0   -964222.39    38985.748   -623253.74       113350   -5.4984891   -308245.28        56160    -5.488698   -315008.46        57190   -5.5081039   -115562.69        28080   -4.1154804   -127613.03        28662   -4.4523423   -192682.59        28080   -6.8619157   -187395.42        28528   -6.5688245
Averages over the last 26 of 51 rows, steps 53500 to 56000:
Temp E_pair E_mol TotEng Press c_interface_energy v_number_of_interface_atoms v_interface_energy_per_atom c_interface_1_energy v_number_of_unfrozen_interface_1_atoms v_interface_1_energy_per_atom c_interface_2_energy v_number_of_unfrozen_interface_2_atoms v_interface_2_energy_per_atom c_type_1_interface_1_energy v_number_of_type_1_interface_1_atoms v_interface_1_type_1_energy_per_atom c_type_1_interface_2_energy v_number_of_type_1_interface_2_atoms v_interface_2_type_1_energy_per_atom c_type_2_interface_1_energy v_number_of_type_2_interface_1_atoms v_interface_1_type_2_energy_per_atom c_type_2_interface_2_energy v_number_of_type_2_interface_2_atoms v_interface_2_type_2_energy_per_atom
0.999783 -964250 0 -964227 38990.9 -623258 113350 -5.49853 -308249 56160 -5.48876 -315009 57190 -5.50812 -115556 28080 -4.11524 -127618 28662 -4.4525 -192693 28080 -6.86229 -187392 28528 -6.56869
Loop time of 1200.29 on 30 procs for 5000 steps with 177984 atoms

clear

#FePt_L10_100-A1_001_cell_1_only
units metal
dimension 3
boundary p p p

atom_style atomic
pair_style meam/c
read_data cell_1_only.in
  triclinic box = (0 0 0) to (47.7449 49.5466 49.5466) with tilt (0 0 0)
  reading atoms ...
  8788 atoms

#Pair_Coeff if MEAM
pair_coeff * * library.meam Fe(L10) Pt(L10) FePt.meam Fe(L10) Pt(L10)
Reading potential file library.meam with DATE: 2012-06-29
Reading potential file FePt.meam with DATE: 2007-06-11

#Energy Compute
compute per_atom all pe/atom

#Atom Type Computes
group atom_type_1 type 1
4394 atoms in group atom_type_1
group atom_type_2 type 2
4394 atoms in group atom_type_2

#Atom Type 1 Computes
compute type_1_energy atom_type_1 reduce sum c_per_atom
variable number_of_type_1_atoms equal count(atom_type_1)
variable atom_type_1_energy_per_atom equal c_type_1_energy/v_number_of_type_1_atoms

#Atom Type 2 Computes
compute type_2_energy atom_type_2 reduce sum c_per_atom
variable number_of_type_2_atoms equal count(atom_type_2)
variable atom_type_2_energy_per_atom equal c_type_2_energy/v_number_of_type_2_atoms

#Stress computations
compute stress all stress/atom NULL
variable total_stress atom abs(c_stress[1])+abs(c_stress[2])+abs(c_stress[3])+abs(c_stress[4])+abs(c_stress[5])+abs(c_stress[6])
variable average_stress atom v_total_stress/6

#Thermo output style
thermo_style custom step temp epair emol etotal press c_type_1_energy v_number_of_type_1_atoms v_atom_type_1_energy_per_atom c_type_2_energy v_number_of_type_2_atoms v_atom_type_2_energy_per_atom

#Thermo output timesteps
thermo 1000

dump MiDump all custom 1000 FePt_L10_100-A1_001_cell_1_only.xyz id type xs ys zs fx fy fz c_stress[1] c_stress[2] c_stress[3] c_stress[4] c_stress[5] c_stress[6] v_average_stress v_total_stress
fix run all nvt temp 1.0 1.0 $(100.0*dt)
fix run all nvt temp 1.0 1.0 0.10000000000000000555
run 4000
  update every 1 steps, delay 10 steps, check yes
Step Temp E_pair E_mol TotEng Press c_type_1_energy v_number_of_type_1_atoms v_atom_type_1_energy_per_atom c_type_2_energy v_number_of_type_2_atoms v_atom_type_2_energy_per_atom
0            0     -48216.8            0     -48216.8    140939.42   -17909.991         4394   -4.0760107   -30306.809         4394   -6.8973165
Loop time of 64.9703 on 30 procs for 4000 steps with 8788 atoms

thermo 100
run 4000
Step Temp E_pair E_mol TotEng Press c_type_1_energy v_number_of_type_1_atoms v_atom_type_1_energy_per_atom c_type_2_energy v_number_of_type_2_atoms v_atom_type_2_energy_per_atom
4000 2.6934822e-19     -48216.8            0     -48216.8    140939.42   -17909.991         4394   -4.0760107   -30306.809         4394   -6.8973165
Averages over the last 21 of 41 rows, steps 6000 to 8000:
Temp E_pair E_mol TotEng Press c_type_1_energy v_number_of_type_1_atoms v_atom_type_1_energy_per_atom c_type_2_energy v_number_of_type_2_atoms v_atom_type_2_energy_per_atom
1.51872e-11 -48216.8 0 -48216.8 140939 -17910 4394 -4.07601 -30306.8 4394 -6.89732
Loop time of 56.6941 on 30 procs for 4000 steps with 8788 atoms

clear

#FePt_L10_100-A1_001_cell_2_only
units metal
dimension 3
boundary p p p

atom_style atomic
pair_style meam/c
read_data cell_2_only.in
  triclinic box = (0 0 0) to (49.79 49.79 49.79) with tilt (0 0 0)
  reading atoms ...
  8788 atoms

#Pair_Coeff if MEAM
pair_coeff * * library.meam Fe(L10) Pt(L10) FePt.meam Fe(L10) Pt(L10)
Reading potential file library.meam with DATE: 2012-06-29
Reading potential file FePt.meam with DATE: 2007-06-11

#Energy Compute
compute per_atom all pe/atom

#Atom Type Computes
group atom_type_1 type 1
4359 atoms in group atom_type_1
group atom_type_2 type 2
4429 atoms in group atom_type_2

#Atom Type 1 Computes
compute type_1_energy atom_type_1 reduce sum c_per_atom
variable number_of_type_1_atoms equal count(atom_type_1)
variable atom_type_1_energy_per_atom equal c_type_1_energy/v_number_of_type_1_atoms

#Atom Type 2 Computes
compute type_2_energy atom_type_2 reduce sum c_per_atom
variable number_of_type_2_atoms equal count(atom_type_2)
variable atom_type_2_energy_per_atom equal c_type_2_energy/v_number_of_type_2_atoms

#Stress computations
compute stress all stress/atom NULL
variable total_stress atom abs(c_stress[1])+abs(c_stress[2])+abs(c_stress[3])+abs(c_stress[4])+abs(c_stress[5])+abs(c_stress[6])
variable average_stress atom v_total_stress/6

#Thermo output style
thermo_style custom step temp epair emol etotal press c_type_1_energy v_number_of_type_1_atoms v_atom_type_1_energy_per_atom c_type_2_energy v_number_of_type_2_atoms v_atom_type_2_energy_per_atom

#Thermo output timesteps
thermo 1000

dump MiDump all custom 1000 FePt_L10_100-A1_001_cell_2_only.xyz id type xs ys zs fx fy fz c_stress[1] c_stress[2] c_stress[3] c_stress[4] c_stress[5] c_stress[6] v_average_stress v_total_stress
fix run all nvt temp 1.0 1.0 $(100.0*dt)
fix run all nvt temp 1.0 1.0 0.10000000000000000555
run 4000
  update every 1 steps, delay 10 steps, check yes
Step Temp E_pair E_mol TotEng Press c_type_1_energy v_number_of_type_1_atoms v_atom_type_1_energy_per_atom c_type_2_energy v_number_of_type_2_atoms v_atom_type_2_energy_per_atom
0            0   -48408.562            0   -48408.562   -18430.374   -19274.663         4359   -4.4218085   -29133.899         4429   -6.5779858
Loop time of 74.8644 on 30 procs for 4000 steps with 8788 atoms

thermo 100
run 4000
Step Temp E_pair E_mol TotEng Press c_type_1_energy v_number_of_type_1_atoms v_atom_type_1_energy_per_atom c_type_2_energy v_number_of_type_2_atoms v_atom_type_2_energy_per_atom
4000   0.99126833   -48496.016            0    -48494.89   -28732.332   -19435.537         4359   -4.4587147   -29060.479         4429   -6.5614086
Averages over the last 21 of 41 rows, steps 6000 to 8000:
Temp E_pair E_mol TotEng Press c_type_1_energy v_number_of_type_1_atoms v_atom_type_1_energy_per_atom c_type_2_energy v_number_of_type_2_atoms v_atom_type_2_energy_per_atom
1.00092 -48496 0 -48494.8 -28725.4 -19435.5 4359 -4.45871 -29060.5 4429 -6.5614
Loop time of 69.3356 on 30 procs for 4000 steps with 8788 atoms
