units metal
dimension 3
boundary p p p

atom_style atomic
pair_style meam/c
read_data Octahedron_1000_atoms.in
  triclinic box = (-1.17 -1.17 -1.289) to (43.3 43.3 42.11) with tilt (0 0 0)
  reading atoms ...
  1000 atoms

#Pair_Coeff MEAM
pair_coeff * * library.meam Fe(L10) Pt(L10) FePt.meam Fe(L10) Pt(L10)
Reading potential file library.meam with DATE: 2012-06-29
Reading potential file FePt.meam with DATE: 2007-06-11

#Energy Per Atom Computes for vacuum grain
compute per_atom all pe/atom
compute grain_energy all reduce sum c_per_atom
variable num_grain_atoms equal count(all)
variable energy_per_atom equal c_grain_energy/v_num_grain_atoms

#Stress computations
compute stress all stress/atom NULL
variable total_stress atom abs(c_stress[1])+abs(c_stress[2])+abs(c_stress[3])+abs(c_stress[4])+abs(c_stress[5])+abs(c_stress[6])
variable average_stress atom v_total_stress/6

#Thermo output style
thermo_style custom step temp epair emol etotal press v_num_grain_atoms c_grain_energy v_energy_per_atom

thermo 1000

#Dump custom setup
dump MiDump all custom 5000 Octahedron_1000_atoms_5000_steps.xyz id type x y z fx fy fz c_stress[1] c_stress[2] c_stress[3] c_stress[4] c_stress[5] c_stress[6] v_average_stress v_total_stress
fix run all npt temp 1.0 1.0 $(100.0*dt) aniso 1.0 1.0 $(1000.0*dt)
fix run all npt temp 1.0 1.0 0.10000000000000000555 aniso 1.0 1.0 $(1000.0*dt)
fix run all npt temp 1.0 1.0 0.10000000000000000555 aniso 1.0 1.0 1
run 5000
  update every 1 steps, delay 10 steps, check yes
Step Temp E_pair E_mol TotEng Press v_num_grain_atoms c_grain_energy v_energy_per_atom
0            0   -5146.8078            0   -5146.8078    6744.3059         1000   -5146.8078   -5.1468078
Loop time of 7.70749 on 32 procs for 5000 steps with 1000 atoms

dump_modify MiDump every 250
run 5000
Step Temp E_pair E_mol TotEng Press v_num_grain_atoms c_grain_energy v_energy_per_atom
5000   0.88322027   -5184.8605            0   -5184.7465   0.92392844         1000   -5184.8605   -5.1848605
Loop time of 8.12416 on 32 procs for 5000 steps with 1000 atoms

#Minimize to get final energy
minimize 0.0 0.0 10000 100000
Step Temp E_pair E_mol TotEng Press v_num_grain_atoms c_grain_energy v_energy_per_atom
10000    1.0520877   -5184.8775            0   -5184.7417   0.94515543         1000   -5184.8775   -5.1848775
Averages over the last 6 of 11 rows, steps 15000 to 20000:
Temp E_pair E_mol TotEng Press v_num_grain_atoms c_grain_energy v_energy_per_atom
1.05209 -5185.01 0 -5184.87 1.68918 1000 -5185.01 -5.18501
Loop time of 31.3221 on 32 procs for 10000 steps with 1000 atoms

Minimization stats:
  Stopping criterion = max iterations
  Energy initial, next-to-last, final =
  Force two-norm initial, final = 1.8676 6.23228e-13
  Force max component initial, final = 0.195723 5.5983e-14
  Final line search alpha, max atom move = 1 5.5983e-14
  Iterations, force evaluations = 10000 20000

#Clear for next model
clear
